LAMMPS (29 Aug 2024 - Update 3)
# LAMMPS input script for water simulation with 10 TIP3P water molecules
# NVT ensemble at 300K

# Initialize simulation
units           real
boundary        p p p
atom_style      full
bond_style      harmonic
angle_style     harmonic
dihedral_style  none
improper_style  none
pair_style      lj/cut/coul/long 10.0
pair_modify     mix arithmetic
kspace_style    pppm 1.0e-4

# Read data file
read_data       water_10.data
Reading data file ...
  orthogonal box = (-7.5 -7.5 -7.5) to (7.5 7.5 7.5)
  reading atoms ...
  30 atoms
  scanning bonds ...
  scanning angles ...
  orthogonal box = (-7.5 -7.5 -7.5) to (7.5 7.5 7.5)
  reading bonds ...
  20 bonds
  reading angles ...
  10 angles
Finding 1-2 1-3 1-4 neighbors ...
     2 = max # of 1-2 neighbors
     1 = max # of 1-3 neighbors
     1 = max # of 1-4 neighbors
     2 = max # of special neighbors

# Set up groups
group           water type 1 2 3
30 atoms in group water
group           O type 1
10 atoms in group O
group           H type 2 3
20 atoms in group H

# Set up pair coefficients for TIP3P water
pair_coeff      1 1 0.1521 3.188
pair_coeff      2 2 0.0000 0.000
pair_coeff      3 3 0.0000 0.000
pair_coeff      1 2 0.0000 0.000
pair_coeff      1 3 0.0000 0.000
pair_coeff      2 3 0.0000 0.000

# Set up bond coefficients for TIP3P water
bond_coeff      1 450.0 0.9572
angle_coeff     1 55.0 104.52

# Set up charges for TIP3P water
set             type 1 charge -0.830
Setting atom values ...
  10 settings made for charge
set             type 2 charge 0.415
Setting atom values ...
  10 settings made for charge
set             type 3 charge 0.415
Setting atom values ...
  10 settings made for charge

# Set up neighbor list
neighbor        2.0 bin
neigh_modify    every 1 delay 0 check yes

# Set up output
thermo          100
thermo_style    custom step temp pe ke etotal press vol density
dump            myDump all custom 500 water_10.lammpstrj id type x y z vx vy vz
dump_modify     myDump sort id

# Minimization
minimize        1.0e-4 1.0e-6 1000 10000
PPPM initialization ...
  G vector (1/distance) = 0.26644093
  grid = 8 8 8
  stencil order = 5
  estimated absolute RMS force accuracy = 0.0079656343
  estimated relative force accuracy = 2.3988271e-05
  3d grid and FFT values/proc = 3375 512
Generated 0 of 3 mixed pair_coeff terms from arithmetic mixing rule
Step          Temp          PotEng         KinEng         TotEng         Press          Volume        Density
0   0              53.569206      0              53.569206      6635.0224      3375           0.088637846
Loop time of 0.0821544 on 1 procs for 220 steps with 30 atoms

Minimization stats:
  Stopping criterion = energy tolerance
  Energy initial, next-to-last, final =
  Force two-norm initial, final = 156.04208 3.0114825
  Force max component initial, final = 63.95743 0.85493802
  Final line search alpha, max atom move = 0.13871089 0.11858921
  Iterations, force evaluations = 220 430

undump          myDump
reset_timestep  0

# Equilibration at 300K (NVT)
timestep        1.0
fix             nvt all nvt temp 300.0 300.0 100.0
run             1000
PPPM initialization ...
  G vector (1/distance) = 0.26644093
  grid = 8 8 8
  stencil order = 5
  estimated absolute RMS force accuracy = 0.0079656343
  estimated relative force accuracy = 2.3988271e-05
  3d grid and FFT values/proc = 3375 512
Generated 0 of 3 mixed pair_coeff terms from arithmetic mixing rule
Step          Temp          PotEng         KinEng         TotEng         Press          Volume        Density
0   0             -77.217662      0             -77.217662     -4.5055382      3375           0.088637846
Averages over the last 6 of 11 rows, steps 500 to 1000:
Temp PotEng KinEng TotEng Press Volume Density
279.283 -64.0845 24.1422 -39.9423 22.8621 3375 0.0886378
Loop time of 0.17908 on 1 procs for 1000 steps with 30 atoms

unfix           nvt

# Production run at 300K (NVT)
fix             nvt_prod all nvt temp 300.0 300.0 100.0
run             5000
PPPM initialization ...
  G vector (1/distance) = 0.26644093
  grid = 8 8 8
  stencil order = 5
  estimated absolute RMS force accuracy = 0.0079656343
  estimated relative force accuracy = 2.3988271e-05
  3d grid and FFT values/proc = 3375 512
Generated 0 of 3 mixed pair_coeff terms from arithmetic mixing rule
Step          Temp          PotEng         KinEng         TotEng         Press          Volume        Density
1000   224.97432     -59.328741      19.447566     -39.881175     -116.16996      3375           0.088637846
Averages over the last 26 of 51 rows, steps 3500 to 6000:
Temp PotEng KinEng TotEng Press Volume Density
295.375 -46.2686 25.5332 -20.7354 43.0167 3375 0.0886378
Loop time of 0.894012 on 1 procs for 5000 steps with 30 atoms

unfix           nvt_prod

# Final output
print           "Simulation completed successfully"
Simulation completed successfully
